
 OpenBabel06072408533D

 32 34  0  0  0  0  0  0  0  0999 V2000
   -0.5414   -0.7867    0.6411 C   0  0  0  0  0  0  0  0  0  0  0  0
    0.7738   -0.5964    0.2272 N   0  0  0  0  0  0  0  0  0  0  0  0
   -1.2056    0.3811    0.2686 N   0  0  0  0  0  0  0  0  0  0  0  0
    0.8563    0.7498   -0.0194 C   0  0  0  0  0  0  0  0  0  0  0  0
   -0.3028    1.3570   -0.0419 N   0  0  0  0  0  0  0  0  0  0  0  0
   -1.0385   -1.6681    1.3303 O   0  0  0  0  0  0  0  0  0  0  0  0
    1.8301   -1.4246    0.4905 N   0  0  0  0  0  0  0  0  0  0  0  0
    1.6984   -2.7206    0.4004 C   0  0  0  0  0  0  0  0  0  0  0  0
    0.6146   -3.5347   -0.0915 C   0  0  0  0  0  0  0  0  0  0  0  0
   -0.2252   -3.0601   -1.0598 O   0  0  0  0  0  0  0  0  0  0  0  0
    0.2435   -4.8241    0.2455 C   0  0  0  0  0  0  0  0  0  0  0  0
   -1.1816   -4.0090   -1.2695 C   0  0  0  0  0  0  0  0  0  0  0  0
   -0.9278   -5.1182   -0.4935 C   0  0  0  0  0  0  0  0  0  0  0  0
   -2.2548   -3.6703   -2.2252 C   0  0  0  0  0  0  0  0  0  0  0  0
   -1.5258   -6.0183   -0.4509 H   0  0  0  0  0  0  0  0  0  0  0  0
    0.7258   -5.4552    0.9788 H   0  0  0  0  0  0  0  0  0  0  0  0
    2.5744   -3.3002    0.7397 H   0  0  0  0  0  0  0  0  0  0  0  0
    2.1251    1.5097   -0.1756 C   0  0  0  0  0  0  0  0  0  0  0  0
    3.3345    0.9528   -0.5982 C   0  0  0  0  0  0  0  0  0  0  0  0
    2.0818    2.8815    0.1323 C   0  0  0  0  0  0  0  0  0  0  0  0
    4.4789    1.7553   -0.7031 C   0  0  0  0  0  0  0  0  0  0  0  0
    3.2215    3.6806    0.0264 C   0  0  0  0  0  0  0  0  0  0  0  0
    4.4191    3.1160   -0.3955 C   0  0  0  0  0  0  0  0  0  0  0  0
   -2.1448    0.6062    0.5661 H   0  0  0  0  0  0  0  0  0  0  0  0
   -2.1225   -4.2274   -3.1573 H   0  0  0  0  0  0  0  0  0  0  0  0
   -3.2353   -3.9243   -1.8091 H   0  0  0  0  0  0  0  0  0  0  0  0
   -2.2560   -2.6014   -2.4595 H   0  0  0  0  0  0  0  0  0  0  0  0
    3.4097   -0.0957   -0.8610 H   0  0  0  0  0  0  0  0  0  0  0  0
    1.1528    3.3409    0.4695 H   0  0  0  0  0  0  0  0  0  0  0  0
    5.4185    1.3192   -1.0304 H   0  0  0  0  0  0  0  0  0  0  0  0
    3.1679    4.7381    0.2720 H   0  0  0  0  0  0  0  0  0  0  0  0
    5.3111    3.7343   -0.4777 H   0  0  0  0  0  0  0  0  0  0  0  0
  1  2  1  0  0  0  0
  1  3  1  0  0  0  0
  1  6  2  0  0  0  0
  2  4  1  0  0  0  0
  2  7  1  0  0  0  0
  3  5  1  0  0  0  0
  3 24  1  0  0  0  0
  4  5  2  0  0  0  0
  4 18  1  0  0  0  0
  7  8  2  0  0  0  0
  8  9  1  0  0  0  0
  8 17  1  0  0  0  0
  9 10  1  0  0  0  0
  9 11  2  0  0  0  0
 10 12  1  0  0  0  0
 11 13  1  0  0  0  0
 11 16  1  0  0  0  0
 12 13  2  0  0  0  0
 12 14  1  0  0  0  0
 13 15  1  0  0  0  0
 14 25  1  0  0  0  0
 14 26  1  0  0  0  0
 14 27  1  0  0  0  0
 18 19  1  0  0  0  0
 18 20  2  0  0  0  0
 19 21  2  0  0  0  0
 19 28  1  0  0  0  0
 20 22  1  0  0  0  0
 20 29  1  0  0  0  0
 21 23  1  0  0  0  0
 21 30  1  0  0  0  0
 22 23  2  0  0  0  0
 22 31  1  0  0  0  0
 23 32  1  0  0  0  0
M  END
>  <Formula>
C14 H12 N4 O2

>  <FW>
268.276

$$$$
